11636
APtclcactv08242200433D 0   0.00000     0.00000     1
 
 83 82  0  0  0  0  0  0  0  0999 V2000
   -0.0000   -0.4603   -0.0000 C   0  0  0  0  0  0  0  0  0  0  0  0
   -1.2492    0.4231   -0.0000 C   0  0  0  0  0  0  0  0  0  0  0  0
    1.2492    0.4231    0.0000 C   0  0  0  0  0  0  0  0  0  0  0  0
   -2.4985   -0.4603    0.0000 C   0  0  0  0  0  0  0  0  0  0  0  0
    2.4985   -0.4603   -0.0000 C   0  0  0  0  0  0  0  0  0  0  0  0
   -3.7477    0.4231   -0.0000 C   0  0  0  0  0  0  0  0  0  0  0  0
    3.7477    0.4231    0.0000 C   0  0  0  0  0  0  0  0  0  0  0  0
   -4.9970   -0.4603    0.0000 C   0  0  0  0  0  0  0  0  0  0  0  0
    4.9970   -0.4603   -0.0000 C   0  0  0  0  0  0  0  0  0  0  0  0
   -6.2462    0.4231   -0.0000 C   0  0  0  0  0  0  0  0  0  0  0  0
    6.2462    0.4231    0.0000 C   0  0  0  0  0  0  0  0  0  0  0  0
   -7.4954   -0.4603    0.0000 C   0  0  0  0  0  0  0  0  0  0  0  0
    7.4954   -0.4603   -0.0000 C   0  0  0  0  0  0  0  0  0  0  0  0
   -8.7447    0.4231   -0.0000 C   0  0  0  0  0  0  0  0  0  0  0  0
    8.7447    0.4231    0.0000 C   0  0  0  0  0  0  0  0  0  0  0  0
   -9.9939   -0.4603    0.0000 C   0  0  0  0  0  0  0  0  0  0  0  0
    9.9939   -0.4603   -0.0000 C   0  0  0  0  0  0  0  0  0  0  0  0
  -11.2432    0.4231   -0.0000 C   0  0  0  0  0  0  0  0  0  0  0  0
   11.2432    0.4231    0.0000 C   0  0  0  0  0  0  0  0  0  0  0  0
  -12.4924   -0.4603    0.0000 C   0  0  0  0  0  0  0  0  0  0  0  0
   12.4924   -0.4603   -0.0000 C   0  0  0  0  0  0  0  0  0  0  0  0
  -13.7416    0.4231   -0.0000 C   0  0  0  0  0  0  0  0  0  0  0  0
   13.7416    0.4231    0.0000 C   0  0  0  0  0  0  0  0  0  0  0  0
  -14.9909   -0.4603    0.0000 C   0  0  0  0  0  0  0  0  0  0  0  0
   14.9909   -0.4603   -0.0000 C   0  0  0  0  0  0  0  0  0  0  0  0
  -16.2401    0.4231   -0.0000 C   0  0  0  0  0  0  0  0  0  0  0  0
   16.2401    0.4231    0.0000 C   0  0  0  0  0  0  0  0  0  0  0  0
   -0.0000   -1.0896    0.8900 H   0  0  0  0  0  0  0  0  0  0  0  0
    0.0000   -1.0896   -0.8900 H   0  0  0  0  0  0  0  0  0  0  0  0
   -1.2492    1.0524    0.8900 H   0  0  0  0  0  0  0  0  0  0  0  0
   -1.2492    1.0524   -0.8900 H   0  0  0  0  0  0  0  0  0  0  0  0
    1.2492    1.0524   -0.8900 H   0  0  0  0  0  0  0  0  0  0  0  0
    1.2492    1.0524    0.8900 H   0  0  0  0  0  0  0  0  0  0  0  0
   -2.4985   -1.0896   -0.8900 H   0  0  0  0  0  0  0  0  0  0  0  0
   -2.4985   -1.0896    0.8900 H   0  0  0  0  0  0  0  0  0  0  0  0
    2.4985   -1.0896    0.8900 H   0  0  0  0  0  0  0  0  0  0  0  0
    2.4985   -1.0896   -0.8900 H   0  0  0  0  0  0  0  0  0  0  0  0
   -3.7477    1.0524    0.8900 H   0  0  0  0  0  0  0  0  0  0  0  0
   -3.7477    1.0524   -0.8900 H   0  0  0  0  0  0  0  0  0  0  0  0
    3.7477    1.0524   -0.8900 H   0  0  0  0  0  0  0  0  0  0  0  0
    3.7477    1.0524    0.8900 H   0  0  0  0  0  0  0  0  0  0  0  0
   -4.9970   -1.0896   -0.8900 H   0  0  0  0  0  0  0  0  0  0  0  0
   -4.9970   -1.0896    0.8900 H   0  0  0  0  0  0  0  0  0  0  0  0
    4.9970   -1.0896    0.8900 H   0  0  0  0  0  0  0  0  0  0  0  0
    4.9970   -1.0896   -0.8900 H   0  0  0  0  0  0  0  0  0  0  0  0
   -6.2462    1.0524    0.8900 H   0  0  0  0  0  0  0  0  0  0  0  0
   -6.2462    1.0524   -0.8900 H   0  0  0  0  0  0  0  0  0  0  0  0
    6.2462    1.0524   -0.8900 H   0  0  0  0  0  0  0  0  0  0  0  0
    6.2462    1.0524    0.8900 H   0  0  0  0  0  0  0  0  0  0  0  0
   -7.4954   -1.0896   -0.8900 H   0  0  0  0  0  0  0  0  0  0  0  0
   -7.4954   -1.0896    0.8900 H   0  0  0  0  0  0  0  0  0  0  0  0
    7.4954   -1.0896    0.8900 H   0  0  0  0  0  0  0  0  0  0  0  0
    7.4954   -1.0896   -0.8900 H   0  0  0  0  0  0  0  0  0  0  0  0
   -8.7447    1.0524    0.8900 H   0  0  0  0  0  0  0  0  0  0  0  0
   -8.7447    1.0524   -0.8900 H   0  0  0  0  0  0  0  0  0  0  0  0
    8.7447    1.0524   -0.8900 H   0  0  0  0  0  0  0  0  0  0  0  0
    8.7447    1.0524    0.8900 H   0  0  0  0  0  0  0  0  0  0  0  0
   -9.9939   -1.0896   -0.8900 H   0  0  0  0  0  0  0  0  0  0  0  0
   -9.9939   -1.0896    0.8900 H   0  0  0  0  0  0  0  0  0  0  0  0
    9.9939   -1.0896    0.8900 H   0  0  0  0  0  0  0  0  0  0  0  0
    9.9939   -1.0896   -0.8900 H   0  0  0  0  0  0  0  0  0  0  0  0
  -11.2432    1.0524    0.8900 H   0  0  0  0  0  0  0  0  0  0  0  0
  -11.2432    1.0524   -0.8900 H   0  0  0  0  0  0  0  0  0  0  0  0
   11.2432    1.0524   -0.8900 H   0  0  0  0  0  0  0  0  0  0  0  0
   11.2432    1.0524    0.8900 H   0  0  0  0  0  0  0  0  0  0  0  0
  -12.4924   -1.0896   -0.8900 H   0  0  0  0  0  0  0  0  0  0  0  0
  -12.4924   -1.0896    0.8900 H   0  0  0  0  0  0  0  0  0  0  0  0
   12.4924   -1.0896    0.8900 H   0  0  0  0  0  0  0  0  0  0  0  0
   12.4924   -1.0896   -0.8900 H   0  0  0  0  0  0  0  0  0  0  0  0
  -13.7416    1.0524    0.8900 H   0  0  0  0  0  0  0  0  0  0  0  0
  -13.7416    1.0524   -0.8900 H   0  0  0  0  0  0  0  0  0  0  0  0
   13.7416    1.0524   -0.8900 H   0  0  0  0  0  0  0  0  0  0  0  0
   13.7416    1.0524    0.8900 H   0  0  0  0  0  0  0  0  0  0  0  0
  -14.9909   -1.0896   -0.8900 H   0  0  0  0  0  0  0  0  0  0  0  0
  -14.9909   -1.0896    0.8900 H   0  0  0  0  0  0  0  0  0  0  0  0
   14.9909   -1.0896    0.8900 H   0  0  0  0  0  0  0  0  0  0  0  0
   14.9909   -1.0896   -0.8900 H   0  0  0  0  0  0  0  0  0  0  0  0
  -17.1301   -0.2062    0.0000 H   0  0  0  0  0  0  0  0  0  0  0  0
  -16.2401    1.0524    0.8900 H   0  0  0  0  0  0  0  0  0  0  0  0
  -16.2401    1.0524   -0.8900 H   0  0  0  0  0  0  0  0  0  0  0  0
   17.1301   -0.2062   -0.0000 H   0  0  0  0  0  0  0  0  0  0  0  0
   16.2401    1.0524   -0.8900 H   0  0  0  0  0  0  0  0  0  0  0  0
   16.2401    1.0524    0.8900 H   0  0  0  0  0  0  0  0  0  0  0  0
  1  2  1  0  0  0  0
  1  3  1  0  0  0  0
  1 28  1  0  0  0  0
  1 29  1  0  0  0  0
  2  4  1  0  0  0  0
  2 30  1  0  0  0  0
  2 31  1  0  0  0  0
  3  5  1  0  0  0  0
  3 32  1  0  0  0  0
  3 33  1  0  0  0  0
  4  6  1  0  0  0  0
  4 34  1  0  0  0  0
  4 35  1  0  0  0  0
  5  7  1  0  0  0  0
  5 36  1  0  0  0  0
  5 37  1  0  0  0  0
  6  8  1  0  0  0  0
  6 38  1  0  0  0  0
  6 39  1  0  0  0  0
  7  9  1  0  0  0  0
  7 40  1  0  0  0  0
  7 41  1  0  0  0  0
  8 10  1  0  0  0  0
  8 42  1  0  0  0  0
  8 43  1  0  0  0  0
  9 11  1  0  0  0  0
  9 44  1  0  0  0  0
  9 45  1  0  0  0  0
 10 12  1  0  0  0  0
 10 46  1  0  0  0  0
 10 47  1  0  0  0  0
 11 13  1  0  0  0  0
 11 48  1  0  0  0  0
 11 49  1  0  0  0  0
 12 14  1  0  0  0  0
 12 50  1  0  0  0  0
 12 51  1  0  0  0  0
 13 15  1  0  0  0  0
 13 52  1  0  0  0  0
 13 53  1  0  0  0  0
 14 16  1  0  0  0  0
 14 54  1  0  0  0  0
 14 55  1  0  0  0  0
 15 17  1  0  0  0  0
 15 56  1  0  0  0  0
 15 57  1  0  0  0  0
 16 18  1  0  0  0  0
 16 58  1  0  0  0  0
 16 59  1  0  0  0  0
 17 19  1  0  0  0  0
 17 60  1  0  0  0  0
 17 61  1  0  0  0  0
 18 20  1  0  0  0  0
 18 62  1  0  0  0  0
 18 63  1  0  0  0  0
 19 21  1  0  0  0  0
 19 64  1  0  0  0  0
 19 65  1  0  0  0  0
 20 22  1  0  0  0  0
 20 66  1  0  0  0  0
 20 67  1  0  0  0  0
 21 23  1  0  0  0  0
 21 68  1  0  0  0  0
 21 69  1  0  0  0  0
 22 24  1  0  0  0  0
 22 70  1  0  0  0  0
 22 71  1  0  0  0  0
 23 25  1  0  0  0  0
 23 72  1  0  0  0  0
 23 73  1  0  0  0  0
 24 26  1  0  0  0  0
 24 74  1  0  0  0  0
 24 75  1  0  0  0  0
 25 27  1  0  0  0  0
 25 76  1  0  0  0  0
 25 77  1  0  0  0  0
 26 78  1  0  0  0  0
 26 79  1  0  0  0  0
 26 80  1  0  0  0  0
 27 81  1  0  0  0  0
 27 82  1  0  0  0  0
 27 83  1  0  0  0  0
M  END
> <UNIQUE_SMILES>
CCCCCCCCCCCCCCCCCCCCCCCCCCC

$$$$
